Version 4
SHEET 1 1152 928
WIRE 704 128 656 128
WIRE 864 128 784 128
WIRE 656 176 656 128
WIRE 976 192 784 192
WIRE 784 224 784 192
WIRE 656 240 656 176
WIRE 752 240 656 240
WIRE 864 256 864 128
WIRE 864 256 816 256
WIRE 144 272 80 272
WIRE 304 272 224 272
WIRE 384 272 304 272
WIRE 512 272 464 272
WIRE 640 272 512 272
WIRE 752 272 640 272
WIRE 80 304 80 272
WIRE 304 352 304 336
WIRE 512 352 512 336
WIRE 512 352 304 352
WIRE 640 352 512 352
WIRE 784 368 784 288
WIRE 848 368 784 368
WIRE 80 416 80 384
WIRE 240 416 80 416
WIRE 304 416 304 352
WIRE 304 416 240 416
WIRE 944 448 848 448
WIRE 976 448 976 272
WIRE 976 448 944 448
WIRE 1056 576 800 576
WIRE 656 592 608 592
WIRE 800 592 800 576
WIRE 800 592 736 592
WIRE 816 592 800 592
WIRE 608 640 608 592
WIRE 928 656 736 656
WIRE 736 688 736 656
WIRE 608 704 608 640
WIRE 704 704 608 704
WIRE 816 720 816 592
WIRE 816 720 768 720
WIRE 96 736 32 736
WIRE 256 736 176 736
WIRE 336 736 256 736
WIRE 464 736 400 736
WIRE 592 736 464 736
WIRE 704 736 592 736
WIRE 32 768 32 736
WIRE 256 768 256 736
WIRE 464 768 464 736
WIRE 736 832 736 752
WIRE 800 832 736 832
WIRE 32 880 32 848
WIRE 256 880 256 848
WIRE 256 880 32 880
WIRE 464 880 464 848
WIRE 464 880 256 880
WIRE 592 880 592 816
WIRE 592 880 464 880
WIRE 32 896 32 880
WIRE 896 912 800 912
WIRE 928 912 928 736
WIRE 928 912 896 912
FLAG 240 416 0
FLAG 576 176 0
FLAG 944 448 0
FLAG 32 896 0
FLAG 528 640 0
FLAG 896 912 0
FLAG 1056 576 Vbessel
SYMBOL cap 288 272 R0
SYMATTR InstName C1
SYMATTR Value .47µ
SYMBOL cap 496 272 R0
SYMATTR InstName C2
SYMATTR Value 4.7µ
SYMBOL ind 368 288 R270
WINDOW 0 32 56 VTop 2
WINDOW 3 5 56 VBottom 2
SYMATTR InstName L1
SYMATTR Value 100m
SYMBOL res 624 256 R0
SYMATTR InstName R1
SYMATTR Value 500
SYMBOL res 128 288 R270
WINDOW 0 32 56 VTop 2
WINDOW 3 0 56 VBottom 2
SYMATTR InstName R2
SYMATTR Value {R}
SYMBOL voltage 80 288 R0
WINDOW 123 24 118 Left 2
SYMATTR Value2 AC 1
SYMATTR InstName V1
SYMATTR Value ""
SYMBOL res 560 192 R270
WINDOW 0 32 56 VTop 2
WINDOW 3 0 56 VBottom 2
SYMATTR InstName R3
SYMATTR Value 1k
SYMBOL res 688 144 R270
WINDOW 0 32 56 VTop 2
WINDOW 3 0 56 VBottom 2
SYMATTR InstName R4
SYMATTR Value 1k
SYMBOL Opamps/OP37 784 192 R0
SYMATTR InstName U2
SYMBOL voltage 976 176 R0
SYMATTR InstName V2
SYMATTR Value 10
SYMBOL voltage 848 464 R180
WINDOW 0 24 96 Left 2
WINDOW 3 24 16 Left 2
SYMATTR InstName V3
SYMATTR Value 10
SYMBOL cap 400 720 R90
WINDOW 0 0 32 VBottom 2
WINDOW 3 32 32 VTop 2
SYMATTR InstName C3
SYMATTR Value 109nF
SYMBOL ind 448 752 R0
SYMATTR InstName L2
SYMATTR Value 12mH
SYMBOL res 576 720 R0
SYMATTR InstName R5
SYMATTR Value 500
SYMBOL res 80 752 R270
WINDOW 0 32 56 VTop 2
WINDOW 3 0 56 VBottom 2
SYMATTR InstName R6
SYMATTR Value 500
SYMBOL voltage 32 752 R0
WINDOW 123 24 118 Left 2
SYMATTR Value2 AC 1
SYMATTR InstName V4
SYMATTR Value ""
SYMBOL res 512 656 R270
WINDOW 0 32 56 VTop 2
WINDOW 3 0 56 VBottom 2
SYMATTR InstName R7
SYMATTR Value 1k
SYMBOL res 640 608 R270
WINDOW 0 32 56 VTop 2
WINDOW 3 0 56 VBottom 2
SYMATTR InstName R8
SYMATTR Value 1k
SYMBOL Opamps/OP37 736 656 R0
SYMATTR InstName U1
SYMBOL voltage 928 640 R0
SYMATTR InstName V5
SYMATTR Value 10
SYMBOL voltage 800 928 R180
WINDOW 0 24 96 Left 2
WINDOW 3 24 16 Left 2
SYMATTR InstName V6
SYMATTR Value 10
SYMBOL ind 240 752 R0
SYMATTR InstName L3
SYMATTR Value 78mH
TEXT 176 64 Left 2 !.ac dec 1000 1 2k
TEXT 88 128 Left 2 !.step param R 50 500 50
TEXT 40 592 Left 2 ;Bessel Filter
