Version 4
SHEET 1 1036 680
WIRE 704 128 656 128
WIRE 864 128 784 128
WIRE 656 176 656 128
WIRE 976 192 784 192
WIRE 784 224 784 192
WIRE 656 240 656 176
WIRE 752 240 656 240
WIRE 864 256 864 128
WIRE 864 256 816 256
WIRE 144 272 80 272
WIRE 304 272 224 272
WIRE 384 272 304 272
WIRE 512 272 464 272
WIRE 640 272 512 272
WIRE 752 272 640 272
WIRE 80 304 80 272
WIRE 304 352 304 336
WIRE 512 352 512 336
WIRE 512 352 304 352
WIRE 640 352 512 352
WIRE 784 368 784 288
WIRE 848 368 784 368
WIRE 80 416 80 384
WIRE 240 416 80 416
WIRE 304 416 304 352
WIRE 304 416 240 416
WIRE 944 448 848 448
WIRE 976 448 976 272
WIRE 976 448 944 448
FLAG 240 416 0
FLAG 576 176 0
FLAG 944 448 0
SYMBOL cap 288 272 R0
SYMATTR InstName C1
SYMATTR Value .47µ
SYMBOL cap 496 272 R0
SYMATTR InstName C2
SYMATTR Value 4.7µ
SYMBOL ind 368 288 R270
WINDOW 0 32 56 VTop 2
WINDOW 3 5 56 VBottom 2
SYMATTR InstName L1
SYMATTR Value 100m
SYMBOL res 624 256 R0
SYMATTR InstName R1
SYMATTR Value 500
SYMBOL res 128 288 R270
WINDOW 0 32 56 VTop 2
WINDOW 3 0 56 VBottom 2
SYMATTR InstName R2
SYMATTR Value {R}
SYMBOL voltage 80 288 R0
WINDOW 123 24 118 Left 2
SYMATTR Value2 AC 1
SYMATTR InstName V1
SYMATTR Value ""
SYMBOL res 560 192 R270
WINDOW 0 32 56 VTop 2
WINDOW 3 0 56 VBottom 2
SYMATTR InstName R3
SYMATTR Value 1k
SYMBOL res 688 144 R270
WINDOW 0 32 56 VTop 2
WINDOW 3 0 56 VBottom 2
SYMATTR InstName R4
SYMATTR Value 1k
SYMBOL Opamps/OP37 784 192 R0
SYMATTR InstName U2
SYMBOL voltage 976 176 R0
SYMATTR InstName V2
SYMATTR Value 10
SYMBOL voltage 848 464 R180
WINDOW 0 24 96 Left 2
WINDOW 3 24 16 Left 2
SYMATTR InstName V3
SYMATTR Value 10
TEXT 176 64 Left 2 !.ac dec 1000 1 2k
TEXT 88 128 Left 2 !.step param R 50 500 50
