Version 4
SHEET 1 1032 848
WIRE 192 -64 -64 -64
WIRE 336 -64 192 -64
WIRE 528 -64 432 -64
WIRE 752 -64 528 -64
WIRE 752 -48 752 -64
WIRE -64 -32 -64 -64
WIRE 192 32 192 -64
WIRE 224 32 192 32
WIRE 384 32 384 0
WIRE 384 32 288 32
WIRE 448 32 384 32
WIRE 528 32 528 -64
WIRE -64 80 -64 48
WIRE -64 80 -144 80
WIRE 752 80 752 32
WIRE 816 80 752 80
WIRE -64 96 -64 80
WIRE 816 96 816 80
WIRE 400 128 288 128
WIRE 464 128 400 128
WIRE 752 128 752 80
WIRE 400 160 400 128
WIRE -64 224 -64 176
WIRE 224 224 224 128
WIRE 224 224 -64 224
WIRE 352 224 224 224
WIRE 544 224 544 128
WIRE 544 224 448 224
WIRE 752 224 752 208
WIRE 752 224 544 224
FLAG -144 80 0
FLAG 816 96 0
SYMBOL voltage -64 -48 R0
SYMATTR InstName V1
SYMATTR Value 48
SYMBOL voltage -64 80 R0
SYMATTR InstName V2
SYMATTR Value 48
SYMBOL npn 336 0 R270
SYMATTR InstName Q1
SYMBOL res 544 16 R90
WINDOW 0 0 56 VBottom 2
WINDOW 3 32 56 VTop 2
SYMATTR InstName R1
SYMATTR Value 100
SYMBOL res 768 48 R180
WINDOW 0 36 76 Left 2
WINDOW 3 36 40 Left 2
SYMATTR InstName R2
SYMATTR Value 200
SYMBOL zener 288 16 R90
WINDOW 0 -4 32 VBottom 2
WINDOW 3 36 32 VTop 2
SYMATTR InstName D1
SYMATTR Value BZX84C15L
SYMBOL pnp 352 160 M90
SYMATTR InstName Q2
SYMBOL zener 224 144 R270
WINDOW 0 36 32 VTop 2
WINDOW 3 -4 32 VBottom 2
SYMATTR InstName D2
SYMATTR Value BZX84C15L
SYMBOL res 560 112 R90
WINDOW 0 0 56 VBottom 2
WINDOW 3 32 56 VTop 2
SYMATTR InstName R3
SYMATTR Value 100
SYMBOL res 768 224 R180
WINDOW 0 36 76 Left 2
WINDOW 3 36 40 Left 2
SYMATTR InstName R4
SYMATTR Value 200
TEXT -104 640 Left 2 !.model BZX84C15L D(Is=.6n Rs=.5 Cjo=110p nbv=6 bv=22 Ibv=1m Vpk=15 mfg=OnSemi type=Zener)
TEXT -88 -352 Left 2 !.op
TEXT -112 -280 Left 2 ;.step param R 50 1000 10
